
**** 05/29/21 02:42:58 ***** PSpice 16.6.0 (October 2012) ***** ID# 0 ********

 ** Profile: "SCHEMATIC1-TCAM"  [ G:\Practice\TCAM circuit\tcam -pspicefiles\schematic1\tcam.sim ] 


 ****     CIRCUIT DESCRIPTION


******************************************************************************




** Creating circuit file "TCAM.cir" 
** WARNING: THIS AUTOMATICALLY GENERATED FILE MAY BE OVERWRITTEN BY SUBSEQUENT SIMULATIONS

*Libraries: 
* Profile Libraries :
* Local Libraries :
* From [PSPICE NETLIST] section of C:\Users\zobay\AppData\Roaming\SPB_Data\cdssetup\OrCAD_PSpice/16.6.0/PSpice.ini file:
.lib "nom.lib" 

*Analysis directives: 
.TRAN  0 200ms 0 
.OPTIONS ADVCONV
.OPTIONS DIGINITSTATE= 0
.PROBE64 V(alias(*)) I(alias(*)) W(alias(*)) D(alias(*)) NOISE(alias(*)) 
.INC "..\SCHEMATIC1.net" 



**** INCLUDING SCHEMATIC1.net ****
* source TCAM 
X_U1         N00403 CLK3 N00416 N00544 M_UN0001 $G_DPWR $G_DGND RSFF
X_U4         N00820 INPUT 2 SELECT LINE0 N00403 $G_DPWR $G_DGND AND3
X_U5         N00820 N00617 SELECT LINE0 N00416 $G_DPWR $G_DGND AND3
X_U6         R/W LINE N00544 SELECT LINE0 N00800 $G_DPWR $G_DGND AND3
X_U7         INPUT 2 N00617  $G_DPWR $G_DGND INV
X_U8         R/W LINE N00820  $G_DPWR $G_DGND INV
X_U10         N01847 INPUT 2 SELECT LINE1 N01709 $G_DPWR $G_DGND AND3
X_U9         N01709 CLK3 N01721 N01757 M_UN0002 $G_DPWR $G_DGND RSFF
X_U12         R/W LINE N01757 SELECT LINE1 N01841 $G_DPWR $G_DGND AND3
X_U11         N01847 N01787 SELECT LINE1 N01721 $G_DPWR $G_DGND AND3
X_U13         INPUT 2 N01787  $G_DPWR $G_DGND INV
X_U14         R/W LINE N01847  $G_DPWR $G_DGND INV
X_U16         N03869 INPUT 1 SELECT LINE0 N03731 $G_DPWR $G_DGND AND3
X_U20         R/W LINE N03869  $G_DPWR $G_DGND INV
X_U26         R/W LINE N04149  $G_DPWR $G_DGND INV
X_U18         R/W LINE N03779 SELECT LINE0 N03863 $G_DPWR $G_DGND AND3
X_U21         N03987 CLK3 N04023 N04035 M_UN0003 $G_DPWR $G_DGND RSFF
X_U22         N04149 INPUT 1 SELECT LINE1 N03987 $G_DPWR $G_DGND AND3
X_U24         R/W LINE N04035 SELECT LINE1 N47644 $G_DPWR $G_DGND AND3
X_U23         N04149 N04069 SELECT LINE1 N04023 $G_DPWR $G_DGND AND3
X_U17         N03869 N03809 SELECT LINE0 N03743 $G_DPWR $G_DGND AND3
X_U19         INPUT 1 N03809  $G_DPWR $G_DGND INV
X_U15         N03731 CLK3 N03743 N03779 M_UN0004 $G_DPWR $G_DGND RSFF
X_U25         INPUT 1 N04069  $G_DPWR $G_DGND INV
X_U35         N05470 N05390 SELECT LINE1 N05344 $G_DPWR $G_DGND AND3
X_U37         INPUT 0 N05390  $G_DPWR $G_DGND INV
X_U28         N05190 INPUT 0 SELECT LINE0 N05052 $G_DPWR $G_DGND AND3
X_U34         N05470 INPUT 0 SELECT LINE1 N05308 $G_DPWR $G_DGND AND3
X_U27         N05052 CLK3 N05064 N05100 M_UN0005 $G_DPWR $G_DGND RSFF
X_U38         R/W LINE N05470  $G_DPWR $G_DGND INV
X_U36         R/W LINE N05356 SELECT LINE1 N05464 $G_DPWR $G_DGND AND3
X_U33         N05308 CLK3 N05344 N05356 M_UN0006 $G_DPWR $G_DGND RSFF
X_U31         INPUT 0 N05130  $G_DPWR $G_DGND INV
X_U32         R/W LINE N05190  $G_DPWR $G_DGND INV
X_U30         R/W LINE N05100 SELECT LINE0 N05184 $G_DPWR $G_DGND AND3
X_U29         N05190 N05130 SELECT LINE0 N05064 $G_DPWR $G_DGND AND3
X_U49         INPUT 3 N06767  $G_DPWR $G_DGND INV
X_U46         N06847 INPUT 3 SELECT LINE1 N06685 $G_DPWR $G_DGND AND3
X_U43         INPUT 3 N06507  $G_DPWR $G_DGND INV
X_U44         R/W LINE N06567  $G_DPWR $G_DGND INV
X_U48         R/W LINE N06733 SELECT LINE1 N06841 $G_DPWR $G_DGND AND3
X_U47         N06847 N06767 SELECT LINE1 N06721 $G_DPWR $G_DGND AND3
X_U42         R/W LINE N06477 SELECT LINE0 N06561 $G_DPWR $G_DGND AND3
X_U50         R/W LINE N06847  $G_DPWR $G_DGND INV
X_U39         N06429 CLK3 N06441 N06477 M_UN0007 $G_DPWR $G_DGND RSFF
X_U40         N06567 INPUT 3 SELECT LINE0 N06429 $G_DPWR $G_DGND AND3
X_U41         N06567 N06507 SELECT LINE0 N06441 $G_DPWR $G_DGND AND3
X_U45         N06685 CLK3 N06721 N06733 M_UN0008 $G_DPWR $G_DGND RSFF
X_U92         R/W LINE N14857  $G_DPWR $G_DGND INV
X_U59         N13457 N13377 SELECT LINE N13331 $G_DPWR $G_DGND AND3
X_U62         R/W LINE N13457  $G_DPWR $G_DGND INV
X_U60         R/W LINE N13343 SELECT LINE N13451 $G_DPWR $G_DGND AND3
X_U95         N15137 N15033 SELECT LINE N15011 $G_DPWR $G_DGND AND3
X_U75         N14135 CLK3 N14171 N14183 M_UN0009 $G_DPWR $G_DGND RSFF
X_U81         N14391 CLK3 N14451 N14463 M_UN0010 $G_DPWR $G_DGND RSFF
X_U61         INPUT 2 N13377  $G_DPWR $G_DGND INV
X_U56         R/W LINE N13177  $G_DPWR $G_DGND INV
X_U70         N14017 INPUT 1 SELECT LINE N13855 $G_DPWR $G_DGND AND3
X_U74         R/W LINE N14017  $G_DPWR $G_DGND INV
X_U55         INPUT 2 N13117  $G_DPWR $G_DGND INV
X_U90         R/W LINE N14743 SELECT LINE2 N14851 $G_DPWR $G_DGND AND3
X_U63         N13599 CLK3 N13611 N13647 M_UN0011 $G_DPWR $G_DGND RSFF
X_U76         N14297 INPUT 0 SELECT LINE2 N14135 $G_DPWR $G_DGND AND3
X_U67         INPUT 1 N13677  $G_DPWR $G_DGND INV
X_U69         N13855 CLK3 N13891 N13903 M_UN0012 $G_DPWR $G_DGND RSFF
X_U87         N14695 CLK3 N14731 N14743 M_UN0013 $G_DPWR $G_DGND RSFF
X_U86         R/W LINE N14577  $G_DPWR $G_DGND INV
X_U97         INPUT 3 N15033  $G_DPWR $G_DGND INV
X_U72         R/W LINE N13903 SELECT LINE N14011 $G_DPWR $G_DGND AND3
X_U84         R/W LINE N14463 SELECT LINE N14571 $G_DPWR $G_DGND AND3
X_U85         INPUT 0 N14473  $G_DPWR $G_DGND INV
X_U89         N14857 N14777 SELECT LINE2 N14731 $G_DPWR $G_DGND AND3
X_U53         N13177 N13117 SELECT LINE2 N13051 $G_DPWR $G_DGND AND3
X_U58         N13457 INPUT 2 SELECT LINE N13295 $G_DPWR $G_DGND AND3
X_U68         R/W LINE N13737  $G_DPWR $G_DGND INV
X_U52         N13177 INPUT 2 SELECT LINE2 N13039 $G_DPWR $G_DGND AND3
X_U66         R/W LINE N13647 SELECT LINE2 N13731 $G_DPWR $G_DGND AND3
X_U94         N15137 INPUT 3 SELECT LINE N14951 $G_DPWR $G_DGND AND3
X_U77         N14297 N14217 SELECT LINE2 N14171 $G_DPWR $G_DGND AND3
X_U51         N13039 CLK3 N13051 N13087 M_UN0014 $G_DPWR $G_DGND RSFF
X_U54         R/W LINE N13087 SELECT LINE2 N13171 $G_DPWR $G_DGND AND3
X_U78         R/W LINE N14183 SELECT LINE2 N14291 $G_DPWR $G_DGND AND3
X_U83         N14577 N14473 SELECT LINE N14451 $G_DPWR $G_DGND AND3
X_U57         N13295 CLK3 N13331 N13343 M_UN0015 $G_DPWR $G_DGND RSFF
X_U96         R/W LINE N15023 SELECT LINE N47095 $G_DPWR $G_DGND AND3
X_U73         INPUT 1 N13937  $G_DPWR $G_DGND INV
X_U80         R/W LINE N14297  $G_DPWR $G_DGND INV
X_U91         INPUT 3 N14777  $G_DPWR $G_DGND INV
X_U64         N13737 INPUT 1 SELECT LINE2 N13599 $G_DPWR $G_DGND AND3
X_U71         N14017 N13937 SELECT LINE N13891 $G_DPWR $G_DGND AND3
X_U79         INPUT 0 N14217  $G_DPWR $G_DGND INV
X_U65         N13737 N13677 SELECT LINE2 N13611 $G_DPWR $G_DGND AND3
X_U82         N14577 INPUT 0 SELECT LINE N14391 $G_DPWR $G_DGND AND3
X_U88         N14857 INPUT 3 SELECT LINE2 N14695 $G_DPWR $G_DGND AND3
X_U98         R/W LINE N15137  $G_DPWR $G_DGND INV
X_U93         N14951 CLK3 N15011 N15023 M_UN0016 $G_DPWR $G_DGND RSFF
X_U100         N06561 N06841 N14851 N47095 OUTPUT3 $G_DPWR $G_DGND OR4
X_U101         N00800 N01841 N13171 N13451 OUTPUT2 $G_DPWR $G_DGND OR4
X_U102         N03863 N47644 N13731 N14011 OUTPUT1 $G_DPWR $G_DGND OR4
X_U103         N05184 N05464 N14291 N14571 OUTPUT0 $G_DPWR $G_DGND OR4
X_U108         OUT_1 N62425 X $G_DPWR $G_DGND OR2
X_U109         OUT_0 N62558 X $G_DPWR $G_DGND OR2
X_U110         OUT_1 N62425  $G_DPWR $G_DGND INV
X_U111         OUT_0 N62558  $G_DPWR $G_DGND INV
X_U112         X X INPUT 3  $G_DPWR $G_DGND AND2
X_U113         X 1 INPUT 2  $G_DPWR $G_DGND AND2
X_U115         OUT_0 N63977  $G_DPWR $G_DGND INV
X_U114         OUT_0 N63977 X $G_DPWR $G_DGND OR2
X_U117         0 0 INPUT 1  $G_DPWR $G_DGND AND2
X_U121         N673170 1  $G_DPWR $G_DGND INV
X_U116         N67389 OUT_1 N673170 $G_DPWR $G_DGND XOR
X_U123         0 OUT_1 N674620 $G_DPWR $G_DGND XOR
X_U122         N674620 0  $G_DPWR $G_DGND INV
X_U125         0 OUT_0 N675660 $G_DPWR $G_DGND XOR
X_U124         N675660 0  $G_DPWR $G_DGND INV
X_U129         N67389 M_UN0017 N687540 $G_DPWR $G_DGND XOR
X_U127         0 M_UN0018 N687060 $G_DPWR $G_DGND XOR
X_U128         N687540 1  $G_DPWR $G_DGND INV
X_U130         1 0 INPUT 0  $G_DPWR $G_DGND AND2
X_U126         N687060 0  $G_DPWR $G_DGND INV
X_U140         OUT_1 OUT_0 SELECT LINE  $G_DPWR $G_DGND AND2
X_U142         OUT_0 N77344  $G_DPWR $G_DGND INV
X_U141         OUT_1 N77340  $G_DPWR $G_DGND INV
X_U139         OUT_1 N77344 SELECT LINE2  $G_DPWR $G_DGND AND2
X_U143A         0 0 CLK N77628 N77628 OUT_0 M_UN0019 $G_CD4000_VDD
+  $G_CD4000_VSS CD4027A PARAMS:
+ IO_LEVEL=0 MNTYMXDLY=0
V_V1         N77628 0 5Vdc
X_U137         N77340 N77344 SELECT LINE0  $G_DPWR $G_DGND AND2
X_U138         N77340 OUT_0 SELECT LINE1  $G_DPWR $G_DGND AND2
X_U143B         0 0 CLK OUT_0 OUT_0 OUT_1 M_UN0020 $G_CD4000_VDD $G_CD4000_VSS
+  CD4027A PARAMS:
+ IO_LEVEL=0 MNTYMXDLY=0
U_DSTM3         STIM(1,1) $G_DPWR $G_DGND CLK IO_STM IO_LEVEL=0 
+ 0 0
+ +8.3ms 1
+REPEAT FOREVER
+ +8.3ms 0
+  +8.3ms 1
+ ENDREPEAT
X_U144         CLK R/W LINE  $G_DPWR $G_DGND INV
X_U145         CLK CLK3  $G_DPWR $G_DGND INV
V_V2         N67389 0 6Vdc

**** RESUMING TCAM.cir ****
.END

WARNING(ORPSIM-15220): Error in opening Alias File : G:\Practice\TCAM circuit\TCAM -PSpiceFiles\SCHEMATIC1\SCHEMATIC1.als
